Circuit: * C:\Workspaces\qubo_electronics.git\trunk\Project QUBO\eagleDesigns\powerBoard\LTC4364 Simulation\LTC4364-2_TA01A (1).asc

Direct Newton iteration failed to find .op point.  (Use ".option noopiter" to skip.)
Starting Gmin stepping
Gmin = 10
Gmin = 1.07374
Gmin = 0.115292
Gmin = 0.0123794
Gmin = 0.00132923
Gmin = 0.000142725
Gmin = 1.5325e-005
Gmin = 1.6455e-006
Gmin = 1.76685e-007
Gmin = 1.89714e-008
Gmin = 2.03704e-009
Gmin = 2.18725e-010
Gmin = 2.34854e-011
Gmin = 2.52173e-012
Gmin = 2.70769e-013
Gmin = 0
Gmin stepping succeeded in finding the operating point.

Heightened Def Con from 0.101303 to 0.101303

Date: Thu Jan 25 21:44:52 2018
Total elapsed time: 1.750 seconds.

tnom = 27
temp = 27
method = modified trap
totiter = 67359
traniter = 66984
tranpoints = 16262
accept = 12516
rejected = 3747
matrix size = 113
fillins = 36
solver = Normal
Thread vector: 16.1/10.9[4] 9.1/4.3[4] 2.2/1.8[4] 0.5/0.8[1]  2592/500
Matrix Compiler1: 7.11 KB object code size  1.9/1.1/[0.5]
Matrix Compiler2: 8.21 KB object code size  1.2/1.8/[0.5]

