Circuit: * C:\Users\Nathan\Downloads\LTC4364-2_TA01A (1).asc

Direct Newton iteration failed to find .op point.  (Use ".option noopiter" to skip.)
Starting Gmin stepping
Gmin = 10
Gmin = 1.07374
Gmin = 0.115292
Gmin = 0.0123794
Gmin = 0.00132923
Gmin = 0.000142725
Gmin = 1.5325e-005
Gmin = 1.6455e-006
Gmin = 1.76685e-007
Gmin = 1.89714e-008
Gmin = 2.03704e-009
Gmin = 2.18725e-010
Gmin = 2.34854e-011
Gmin = 2.52173e-012
Gmin = 2.70769e-013
Gmin = 0
Gmin stepping succeeded in finding the operating point.

Heightened Def Con from 0.0294131 to 0.0294131
Heightened Def Con from 0.0294132 to 0.0294132

Date: Thu Jan 25 16:21:54 2018
Total elapsed time: 0.524 seconds.

tnom = 27
temp = 27
method = modified trap
totiter = 19278
traniter = 18903
tranpoints = 5117
accept = 4106
rejected = 1013
matrix size = 113
fillins = 36
solver = Normal
Thread vector: 14.0/8.9[4] 7.7/4.7[4] 1.7/1.7[1] 0.3/2.0[1]  2592/500
Matrix Compiler1: 7.11 KB object code size  2.5/1.2/[0.6]
Matrix Compiler2: 8.21 KB object code size  1.0/1.2/[0.4]

