Circuit: * C:\Users\nater\Downloads\LTC4364-2_TA01A.asc

Direct Newton iteration failed to find .op point.  (Use ".option noopiter" to skip.)
Starting Gmin stepping
Gmin = 10
Gmin = 1.07374
Gmin = 0.115292
Gmin = 0.0123794
Gmin = 0.00132923
Gmin = 0.000142725
Gmin = 1.5325e-005
Gmin = 1.6455e-006
Gmin = 1.76685e-007
Gmin = 1.89714e-008
Gmin = 2.03704e-009
Gmin = 2.18725e-010
Gmin = 2.34854e-011
Gmin = 2.52173e-012
Gmin = 2.70769e-013
Gmin = 0
Gmin stepping succeeded in finding the operating point.

Heightened Def Con from 0.50106 to 0.50106
Heightened Def Con from 0.501485 to 0.501485

Date: Thu Nov 16 19:26:08 2017
Total elapsed time: 0.648 seconds.

tnom = 27
temp = 27
method = modified trap
totiter = 18493
traniter = 18118
tranpoints = 5088
accept = 4073
rejected = 1017
matrix size = 109
fillins = 27
solver = Normal
Thread vector: 40.5/29.7[4] 16.4/11.6[4] 2.4/1.6[4] 1.0/6.6[1]  2592/500
Matrix Compiler1: 6.52 KB object code size  3.5/2.0/[0.8]
Matrix Compiler2: 7.75 KB object code size  4.1/4.6/[1.3]

