Circuit: * C:\Workspaces\qubo_electronics.git\trunk\Project QUBO\eagleDesigns\powerBoard\LTC4364 Simulation\LTC4364-2_TA01A (1).asc

Direct Newton iteration failed to find .op point.  (Use ".option noopiter" to skip.)
Starting Gmin stepping
Gmin = 10
Gmin = 1.07374
Gmin = 0.115292
Gmin = 0.0123794
Gmin = 0.00132923
Gmin = 0.000142725
Gmin = 1.5325e-005
Gmin = 1.6455e-006
Gmin = 1.76685e-007
Gmin = 1.89714e-008
Gmin = 2.03704e-009
Gmin = 2.18725e-010
Gmin = 2.34854e-011
Gmin = 2.52173e-012
Gmin = 2.70769e-013
Gmin = 0
Gmin stepping succeeded in finding the operating point.

Heightened Def Con from 0.159465 to 0.159465

Date: Thu Feb 01 19:35:22 2018
Total elapsed time: 0.699 seconds.

tnom = 27
temp = 27
method = modified trap
totiter = 18177
traniter = 17802
tranpoints = 4838
accept = 3958
rejected = 881
matrix size = 113
fillins = 36
solver = Normal
Thread vector: 20.1/15.6[4] 8.9/4.8[4] 3.1/3.4[1] 0.3/1.0[1]  2592/500
Matrix Compiler1: 7.11 KB object code size  2.2/1.1/[0.5]
Matrix Compiler2: 8.21 KB object code size  1.3/1.9/[0.5]

