Circuit: * C:\Workspaces\qubo\qubo_electronics.git\trunk\Project QUBO\eagleDesigns\powerBoard\LTC4364 Simulation\LTC4364-2_TA01A (1).asc

Direct Newton iteration failed to find .op point.  (Use ".option noopiter" to skip.)
Starting Gmin stepping
Gmin = 10
Gmin = 1.07374
Gmin = 0.115292
Gmin = 0.0123794
Gmin = 0.00132923
Gmin = 0.000142725
Gmin = 1.5325e-005
Gmin = 1.6455e-006
Gmin = 1.76685e-007
Gmin = 1.89714e-008
Gmin = 2.03704e-009
Gmin = 2.18725e-010
Gmin = 2.34854e-011
Gmin = 2.52173e-012
Gmin = 2.70769e-013
Gmin = 0
Gmin stepping succeeded in finding the operating point.

Heightened Def Con from 0.159464 to 0.159464

Date: Sat Feb 03 15:02:26 2018
Total elapsed time: 0.741 seconds.

tnom = 27
temp = 27
method = modified trap
totiter = 18547
traniter = 18172
tranpoints = 4931
accept = 4014
rejected = 918
matrix size = 113
fillins = 36
solver = Normal
Thread vector: 117.9/17.9[4] 14.1/8.9[4] 4.1/4.7[1] 0.3/14.1[1]  2592/500
Matrix Compiler1: 7.11 KB object code size  2.3/1.7/[0.6]
Matrix Compiler2: 8.21 KB object code size  4.7/4.3/[0.5]

