Circuit: * C:\Workspaces\qubo_electronics.git\trunk\Project QUBO\eagleDesigns\powerBoard\LTC4364 Simulation\LTC4364-2_TA01A (1).asc

Direct Newton iteration failed to find .op point.  (Use ".option noopiter" to skip.)
Starting Gmin stepping
Gmin = 10
Gmin = 1.07374
Gmin = 0.115292
Gmin = 0.0123794
Gmin = 0.00132923
Gmin = 0.000142725
Gmin = 1.5325e-005
Gmin = 1.6455e-006
Gmin = 1.76685e-007
Gmin = 1.89714e-008
Gmin = 2.03704e-009
Gmin = 2.18725e-010
Gmin = 2.34854e-011
Gmin = 2.52173e-012
Gmin = 2.70769e-013
Gmin = 0
Gmin stepping succeeded in finding the operating point.

Heightened Def Con from 0.159266 to 0.159266

Date: Tue Feb 20 19:01:38 2018
Total elapsed time: 0.879 seconds.

tnom = 27
temp = 27
method = modified trap
totiter = 18381
traniter = 18006
tranpoints = 4867
accept = 3979
rejected = 889
matrix size = 113
fillins = 36
solver = Normal
Thread vector: 40.8/32.1[4] 11.5/9.3[4] 3.2/3.6[1] 1.0/5.0[1]  2592/500
Matrix Compiler1: 7.11 KB object code size  2.5/1.6/[0.5]
Matrix Compiler2: 8.21 KB object code size  2.7/3.8/[1.5]

